C00024384
     RDKit          2D

 20 24  0  0  0  0  0  0  0  0999 V2000
    0.7108    2.2250    0.0000 C   0  0  0  0  0  0  0  0  0  0  0  0
    1.6744    1.7782    0.0000 C   0  0  0  0  0  0  0  0  0  0  0  0
    1.7062    0.6038    0.0000 C   0  0  0  0  0  0  0  0  0  0  0  0
    0.6142   -0.0938    0.0000 C   0  0  0  0  0  0  0  0  0  0  0  0
   -0.1748    0.3408    0.0000 C   0  0  0  0  0  0  0  0  0  0  0  0
   -0.2650    1.5756    0.0000 C   0  0  0  0  0  0  0  0  0  0  0  0
   -1.4206   -0.2424    0.0000 C   0  0  0  0  0  0  0  0  0  0  0  0
   -1.4168   -1.4280    0.0000 C   0  0  0  0  0  0  0  0  0  0  0  0
   -0.3068   -1.7256    0.0000 N   0  0  0  0  0  0  0  0  0  0  0  0
    0.6796   -0.9516    0.0000 C   0  0  0  0  0  0  0  0  0  0  0  0
    0.0964   -1.0082    0.0000 C   0  0  0  0  0  0  0  0  0  0  0  0
   -0.6600   -0.0114    0.0000 C   0  0  0  0  0  0  0  0  0  0  0  0
   -2.2670   -1.8584    0.0000 C   0  0  0  0  0  0  0  0  0  0  0  0
   -3.2054   -1.3004    0.0000 C   0  0  0  0  0  0  0  0  0  0  0  0
   -3.1588   -0.2142    0.0000 C   0  0  0  0  0  0  0  0  0  0  0  0
   -2.2702    0.3042    0.0000 C   0  0  0  0  0  0  0  0  0  0  0  0
   -4.0760   -1.7714    0.0000 O   0  0  0  0  0  0  0  0  0  0  0  0
    2.3330    2.4788    0.0000 O   0  0  0  0  0  0  0  0  0  0  0  0
    1.8492    3.4222    0.0000 C   0  0  0  0  0  0  0  0  0  0  0  0
    0.8588    3.2312    0.0000 O   0  0  0  0  0  0  0  0  0  0  0  0
  1  2  1  0
  2  3  2  0
  3  4  1  0
  4  5  2  0
  5  6  1  0
  5  7  1  0
  7  8  1  0
  8  9  1  0
  9 10  1  0
  9 11  1  0
 11 12  1  0
  8 13  1  6
 13 14  1  0
 14 15  1  0
 15 16  2  0
 14 17  1  1
  2 18  1  0
 18 19  1  0
 19 20  1  0
  6  1  2  0
  7 16  1  6
 20  1  1  0
 10  4  1  0
 12  7  1  0
M  END
>  <Name>  (1) 
Crinine||Crinidine

>  <Formula>  (1) 
C16H17NO3

>  <Mw>  (1) 
271.12084342

>  <CAS RN>  (1) 
510-67-8

>  <InChIKey>  (1) 
RPAORVSEYNOMBR-AXBRQKDCNA-N

>  <InChICode>  (1) 
InChI=1S/C16H17NO3/c18-11-1-2-16-3-4-17(15(16)6-11)8-10-5-13-14(7-12(10)16)20-9-19-13/h1-2,5,7,11,15,18H,3-4,6,8-9H2/t11-,15+,16+/m0/s1

>  <SMILES>  (1) 
c12c(cc3c(c1)[C@@]14[C@H](N(C3)CC4)C[C@H](C=C1)O)OCO2

>  <C_ID>  (1) 
C00024384

>  <Contains_Nitrogen>  (1) 
True

>  <In_Species>  (1) 
Ammocharis tinneana||Brunsvigia gregaria||Brunsvigia josephinae||Brunsvigia littoralis||Galanthus elwesii

>  <NMRSHIFTDB2_ASSIGNMENT>  (1) 
1, 147.1 \
2, 147.4 \
3, 106.0 \
4, 126.9 \
5, 136.3 \
6, 105.5 \
7, 44.0 \
8, 62.9 \
10, 61.6 \
11, 53.4 \
12, 44.0 \
13, 32.5 \
14, 64.0 \
15, 127.5 \
16, 132.1 \
19, 101.5 \

>  <NMR_score>  (1) 
1.000

$$$$
C00024446
     RDKit          2D

 20 24  0  0  0  0  0  0  0  0999 V2000
    0.7108    2.2250    0.0000 C   0  0  0  0  0  0  0  0  0  0  0  0
    1.6744    1.7782    0.0000 C   0  0  0  0  0  0  0  0  0  0  0  0
    1.7062    0.6038    0.0000 C   0  0  0  0  0  0  0  0  0  0  0  0
    0.6142   -0.0938    0.0000 C   0  0  0  0  0  0  0  0  0  0  0  0
   -0.1748    0.3408    0.0000 C   0  0  0  0  0  0  0  0  0  0  0  0
   -0.2650    1.5756    0.0000 C   0  0  0  0  0  0  0  0  0  0  0  0
   -1.4206   -0.2424    0.0000 C   0  0  0  0  0  0  0  0  0  0  0  0
   -1.4168   -1.4280    0.0000 C   0  0  0  0  0  0  0  0  0  0  0  0
   -0.3068   -1.7256    0.0000 N   0  0  0  0  0  0  0  0  0  0  0  0
    0.6796   -0.9516    0.0000 C   0  0  0  0  0  0  0  0  0  0  0  0
    0.0964   -1.0082    0.0000 C   0  0  0  0  0  0  0  0  0  0  0  0
   -0.6600   -0.0114    0.0000 C   0  0  0  0  0  0  0  0  0  0  0  0
   -2.2670   -1.8584    0.0000 C   0  0  0  0  0  0  0  0  0  0  0  0
   -3.2054   -1.3004    0.0000 C   0  0  0  0  0  0  0  0  0  0  0  0
   -3.1588   -0.2142    0.0000 C   0  0  0  0  0  0  0  0  0  0  0  0
   -2.2702    0.3042    0.0000 C   0  0  0  0  0  0  0  0  0  0  0  0
   -4.0760   -1.7714    0.0000 O   0  0  0  0  0  0  0  0  0  0  0  0
    2.3330    2.4788    0.0000 O   0  0  0  0  0  0  0  0  0  0  0  0
    1.8492    3.4222    0.0000 C   0  0  0  0  0  0  0  0  0  0  0  0
    0.8588    3.2312    0.0000 O   0  0  0  0  0  0  0  0  0  0  0  0
  1  2  1  0
  2  3  2  0
  3  4  1  0
  4  5  2  0
  5  6  1  0
  5  7  1  0
  7  8  1  0
  8  9  1  0
  9 10  1  0
  9 11  1  0
 11 12  1  0
  8 13  1  1
 13 14  1  0
 14 15  1  0
 15 16  2  0
 14 17  1  6
  2 18  1  0
 18 19  1  0
 19 20  1  0
  6  1  2  0
  7 16  1  1
 20  1  1  0
 10  4  1  0
 12  7  1  0
M  END
>  <Name>  (2) 
Vittatine

>  <Formula>  (2) 
C16H17NO3

>  <Mw>  (2) 
271.12084342

>  <CAS RN>  (2) 
510-69-0

>  <InChIKey>  (2) 
RPAORVSEYNOMBR-AXBRQKDCNA-N

>  <InChICode>  (2) 
InChI=1S/C16H17NO3/c18-11-1-2-16-3-4-17(15(16)6-11)8-10-5-13-14(7-12(10)16)20-9-19-13/h1-2,5,7,11,15,18H,3-4,6,8-9H2/t11-,15+,16+/m1/s1

>  <SMILES>  (2) 
c12c(cc3c(c1)[C@]14[C@@H](N(C3)CC4)C[C@@H](C=C1)O)OCO2

>  <C_ID>  (2) 
C00024446

>  <Contains_Nitrogen>  (2) 
True

>  <In_Species>  (2) 
Hippeastrum vittatum L.'Herr.||Narcissus pseudo narcissus subsp.pseudo narcissus

>  <NMRSHIFTDB2_ASSIGNMENT>  (2) 
1, 147.1 \
2, 147.4 \
3, 106.0 \
4, 126.9 \
5, 136.3 \
6, 105.5 \
7, 44.0 \
8, 62.9 \
10, 61.6 \
11, 53.4 \
12, 44.0 \
13, 32.5 \
14, 64.0 \
15, 127.5 \
16, 132.1 \
19, 101.5 \

>  <NMR_score>  (2) 
1.000

$$$$
C00001565
     RDKit          2D

 20 24  0  0  0  0  0  0  0  0999 V2000
    1.7464    0.1610    0.0000 C   0  0  0  0  0  0  0  0  0  0  0  0
    0.8828    0.6652    0.0000 C   0  0  0  0  0  0  0  0  0  0  0  0
    0.0144    0.1694    0.0000 C   0  0  0  0  0  0  0  0  0  0  0  0
    0.0096   -0.8306    0.0000 C   0  0  0  0  0  0  0  0  0  0  0  0
    0.8732   -1.3348    0.0000 C   0  0  0  0  0  0  0  0  0  0  0  0
    1.7416   -0.8390    0.0000 C   0  0  0  0  0  0  0  0  0  0  0  0
    2.6912   -1.1526    0.0000 O   0  0  0  0  0  0  0  0  0  0  0  0
    3.2828   -0.3464    0.0000 C   0  0  0  0  0  0  0  0  0  0  0  0
    2.6990    0.4654    0.0000 O   0  0  0  0  0  0  0  0  0  0  0  0
   -0.8588   -1.3264    0.0000 C   0  0  0  0  0  0  0  0  0  0  0  0
   -1.7224   -0.8224    0.0000 C   0  0  0  0  0  0  0  0  0  0  0  0
   -1.7176    0.1776    0.0000 N   0  0  0  0  0  0  0  0  0  0  0  0
   -0.8492    0.6734    0.0000 C   0  0  0  0  0  0  0  0  0  0  0  0
   -2.6674    0.4912    0.0000 C   0  0  0  0  0  0  0  0  0  0  0  0
   -3.2588   -0.3150    0.0000 C   0  0  0  0  0  0  0  0  0  0  0  0
   -2.6750   -1.1268    0.0000 C   0  0  0  0  0  0  0  0  0  0  0  0
   -2.5956   -2.3180    0.0000 C   0  0  0  0  0  0  0  0  0  0  0  0
   -1.7320   -2.8222    0.0000 C   0  0  0  0  0  0  0  0  0  0  0  0
   -0.8636   -2.3264    0.0000 C   0  0  0  0  0  0  0  0  0  0  0  0
    0.0000   -2.8306    0.0000 O   0  0  0  0  0  0  0  0  0  0  0  0
  1  2  2  0
  2  3  1  0
  3  4  2  0
  4  5  1  0
  5  6  2  0
  6  7  1  0
  7  8  1  0
  8  9  1  0
 10  4  1  6
 10 11  1  0
 11 12  1  0
 12 13  1  0
 12 14  1  0
 14 15  1  0
 15 16  1  0
 16 17  2  0
 17 18  1  0
 18 19  1  0
 19 20  1  6
  6  1  1  0
 19 10  1  0
  9  1  1  0
 11 16  1  1
 13  3  1  0
M  END
>  <Name>  (3) 
Caranine

>  <Formula>  (3) 
C16H17NO3

>  <Mw>  (3) 
271.12084342

>  <CAS RN>  (3) 
477-12-3

>  <InChIKey>  (3) 
XKYSLILSDJBMCU-WKZXTWAPNA-N

>  <InChICode>  (3) 
InChI=1S/C16H17NO3/c18-12-2-1-9-3-4-17-7-10-5-13-14(20-8-19-13)6-11(10)15(12)16(9)17/h1,5-6,12,15-16,18H,2-4,7-8H2/t12-,15-,16-/m1/s1

>  <SMILES>  (3) 
c12cc3c(cc1OCO2)[C@H]1[C@@H]2N(C3)CCC2=CC[C@H]1O

>  <C_ID>  (3) 
C00001565

>  <Contains_Nitrogen>  (3) 
True

>  <In_Species>  (3) 
Amaryllis belladonna||Ammocharis coranica||Clivia defixum

>  <NMRSHIFTDB2_ASSIGNMENT>  (3) 
1, 147.4 \
2, 106.8 \
3, 129.1 \
4, 126.6 \
5, 109.9 \
6, 146.8 \
8, 101.3 \
10, 42.3 \
11, 60.6 \
13, 56.8 \
14, 53.4 \
15, 28.1 \
16, 139.6 \
17, 114.9 \
18, 34.7 \
19, 68.9 \

>  <NMR_score>  (3) 
0.938

$$$$
