C00024444
     RDKit          2D

 25 29  0  0  0  0  0  0  0  0999 V2000
    1.8050   -0.2192    0.0000 C   0  0  0  0  0  0  0  0  0  0  0  0
    1.8418   -1.2738    0.0000 C   0  0  0  0  0  0  0  0  0  0  0  0
    0.9780   -1.7760    0.0000 C   0  0  0  0  0  0  0  0  0  0  0  0
    0.0940   -1.2990    0.0000 C   0  0  0  0  0  0  0  0  0  0  0  0
    0.0930   -0.2112    0.0000 C   0  0  0  0  0  0  0  0  0  0  0  0
    0.9210    0.2996    0.0000 C   0  0  0  0  0  0  0  0  0  0  0  0
   -0.9458    0.3330    0.0000 C   0  0  0  0  0  0  0  0  0  0  0  0
   -1.8842   -0.2372    0.0000 C   0  0  0  0  0  0  0  0  0  0  0  0
   -1.8176   -1.3226    0.0000 O   0  0  0  0  0  0  0  0  0  0  0  0
   -0.8286   -1.8758    0.0000 C   0  0  0  0  0  0  0  0  0  0  0  0
   -2.6952    0.5028    0.0000 C   0  0  0  0  0  0  0  0  0  0  0  0
   -2.2918    1.3018    0.0000 N   0  0  0  0  0  0  0  0  0  0  0  0
   -0.9480    0.9472    0.0000 C   0  0  0  0  0  0  0  0  0  0  0  0
   -0.2626    1.6202    0.0000 C   0  0  0  0  0  0  0  0  0  0  0  0
   -0.7378    2.2580    0.0000 C   0  0  0  0  0  0  0  0  0  0  0  0
   -1.7432    1.8200    0.0000 C   0  0  0  0  0  0  0  0  0  0  0  0
   -1.4456    0.3314    0.0000 C   0  0  0  0  0  0  0  0  0  0  0  0
   -0.4746    3.2334    0.0000 O   0  0  0  0  0  0  0  0  0  0  0  0
    0.4912    3.4914    0.0000 C   0  0  0  0  0  0  0  0  0  0  0  0
   -2.6940    2.2062    0.0000 C   0  0  0  0  0  0  0  0  0  0  0  0
   -2.7166   -0.7856    0.0000 O   0  0  0  0  0  0  0  0  0  0  0  0
   -2.6732   -1.7820    0.0000 C   0  0  0  0  0  0  0  0  0  0  0  0
    2.7744   -1.5528    0.0000 O   0  0  0  0  0  0  0  0  0  0  0  0
    3.3792   -0.7256    0.0000 C   0  0  0  0  0  0  0  0  0  0  0  0
    2.7512    0.0858    0.0000 O   0  0  0  0  0  0  0  0  0  0  0  0
  1  2  1  0
  2  3  2  0
  3  4  1  0
  4  5  2  0
  5  6  1  0
  5  7  1  0
  7  8  1  0
  8  9  1  0
  9 10  1  0
  8 11  1  0
 11 12  1  0
 12 13  1  0
 13 14  1  1
 14 15  1  0
 15 16  1  0
 16 17  1  0
 15 18  1  1
 18 19  1  0
 12 20  1  0
  8 21  1  1
 21 22  1  0
  2 23  1  0
 23 24  1  0
 24 25  1  0
  6  1  2  0
 13  7  1  0
 25  1  1  0
 10  4  1  0
  7 17  1  1
M  END
>  <Name>  (1) 
Ungvedine||O-Methyldihydrotazettine

>  <Formula>  (1) 
C19H25NO5

>  <Mw>  (1) 
347.17327292

>  <CAS RN>  (1) 
73276-40-1

>  <InChIKey>  (1) 
SYNWETIQJZCYSM-UMQKIBKFNA-N

>  <InChICode>  (1) 
InChI=1S/C19H25NO5/c1-20-10-19(22-3)18(5-4-13(21-2)7-17(18)20)14-8-16-15(23-11-24-16)6-12(14)9-25-19/h6,8,13,17H,4-5,7,9-11H2,1-3H3/t13-,17+,18+,19-/m1/s1

>  <SMILES>  (1) 
c12c(cc3c(c1)[C@]14[C@](OC3)(CN([C@H]1C[C@@H](CC4)OC)C)OC)OCO2

>  <C_ID>  (1) 
C00024444

>  <Contains_Nitrogen>  (1) 
True

>  <In_Species>  (1) 
Ungernia vvedensky||Ungernia vvedenskyi

>  <NMRSHIFTDB2_ASSIGNMENT>  (1) 
1, 147.1 \
2, 146.3 \
3, 103.7 \
4, 127.8 \
5, 141.6 \
6, 105.5 \
7, 48.4 \
8, 107.2 \
10, 65.0 \
11, 61.3 \
13, 64.4 \
14, 35.9 \
15, 77.5 \
16, 26.8 \
17, 35.1 \
19, 56.2 \
20, 41.9 \
22, 50.6 \
24, 101.6 \

>  <NMR_score>  (1) 
0.895

$$$$
C00035179
     RDKit          2D

 25 29  0  0  0  0  0  0  0  0999 V2000
    0.2604    1.6342    0.0000 C   0  0  0  0  0  0  0  0  0  0  0  0
    1.2528    1.3524    0.0000 C   0  0  0  0  0  0  0  0  0  0  0  0
    1.4708    0.2874    0.0000 C   0  0  0  0  0  0  0  0  0  0  0  0
    0.6152   -0.4830    0.0000 C   0  0  0  0  0  0  0  0  0  0  0  0
   -0.2676   -0.1618    0.0000 C   0  0  0  0  0  0  0  0  0  0  0  0
   -0.5262    0.9454    0.0000 C   0  0  0  0  0  0  0  0  0  0  0  0
   -1.3466   -0.8426    0.0000 C   0  0  0  0  0  0  0  0  0  0  0  0
   -1.3442   -2.0548    0.0000 C   0  0  0  0  0  0  0  0  0  0  0  0
   -0.1654   -2.2612    0.0000 N   0  0  0  0  0  0  0  0  0  0  0  0
    0.8106   -1.3342    0.0000 C   0  0  0  0  0  0  0  0  0  0  0  0
    2.0468   -1.0838    0.0000 O   0  0  0  0  0  0  0  0  0  0  0  0
    2.7124   -0.3392    0.0000 C   0  0  0  0  0  0  0  0  0  0  0  0
    0.1998   -1.5972    0.0000 C   0  0  0  0  0  0  0  0  0  0  0  0
   -0.6336   -0.6136    0.0000 C   0  0  0  0  0  0  0  0  0  0  0  0
   -2.1504   -2.5178    0.0000 C   0  0  0  0  0  0  0  0  0  0  0  0
   -3.0832   -1.9608    0.0000 C   0  0  0  0  0  0  0  0  0  0  0  0
   -3.1082   -0.8978    0.0000 C   0  0  0  0  0  0  0  0  0  0  0  0
   -2.2100   -0.3792    0.0000 C   0  0  0  0  0  0  0  0  0  0  0  0
   -3.9568   -2.4618    0.0000 O   0  0  0  0  0  0  0  0  0  0  0  0
   -4.8190   -1.9532    0.0000 C   0  0  0  0  0  0  0  0  0  0  0  0
    2.1370    0.2052    0.0000 O   0  0  0  0  0  0  0  0  0  0  0  0
    2.7438    0.9990    0.0000 C   0  0  0  0  0  0  0  0  0  0  0  0
    1.8292    2.1572    0.0000 O   0  0  0  0  0  0  0  0  0  0  0  0
    1.1946    2.9678    0.0000 C   0  0  0  0  0  0  0  0  0  0  0  0
    0.2382    2.6646    0.0000 O   0  0  0  0  0  0  0  0  0  0  0  0
  1  2  1  0
  2  3  2  0
  3  4  1  0
  4  5  2  0
  5  6  1  0
  5  7  1  0
  7  8  1  0
  8  9  1  0
  9 10  1  0
 10 11  1  1
 11 12  1  0
  9 13  1  0
 13 14  1  0
  8 15  1  6
 15 16  1  0
 16 17  1  0
 17 18  1  0
 16 19  1  1
 19 20  1  0
  3 21  1  0
 21 22  1  0
  2 23  1  0
 23 24  1  0
 24 25  1  0
  6  1  2  0
  7 18  1  6
 25  1  1  0
 10  4  1  0
 14  7  1  0
M  END
>  <Name>  (2) 
6alpha-Methoxybuphanidrine

>  <Formula>  (2) 
C19H25NO5

>  <Mw>  (2) 
348.18109795

>  <CAS RN>  (2) 
848610-39-9

>  <InChIKey>  (2) 
BADSVTUIRCCMMZ-JVRMERTONA-N

>  <InChICode>  (2) 
InChI=1S/C19H25NO5/c1-21-11-4-5-19-6-7-20(14(19)8-11)18(23-3)15-12(19)9-13-16(17(15)22-2)25-10-24-13/h9,11,14,18H,4-8,10H2,1-3H3/t11-,14+,18+,19+/m0/s1

>  <SMILES>  (2) 
c12c(c(c3c(c1)[C@@]14[C@H](N([C@@H]3OC)CC4)C[C@H](CC1)OC)OC)OCO2

>  <C_ID>  (2) 
C00035179

>  <Contains_Nitrogen>  (2) 
True

>  <In_Species>  (2) 
Nerine filifolia

>  <NMRSHIFTDB2_ASSIGNMENT>  (2) 
1, 148.0 \
2, 136.0 \
3, 145.2 \
4, 116.2 \
5, 141.6 \
6, 105.5 \
7, 39.6 \
8, 64.4 \
10, 88.8 \
12, 52.5 \
13, 49.9 \
14, 38.6 \
15, 35.5 \
16, 77.5 \
17, 29.2 \
18, 35.1 \
20, 56.2 \
22, 61.0 \
24, 101.0 \

>  <NMR_score>  (2) 
0.789

$$$$
