C00001569
     RDKit          2D

 22 26  0  0  0  0  0  0  0  0999 V2000
    1.6154    2.2002    0.0000 C   0  0  0  0  0  0  0  0  0  0  0  0
    1.8008    1.0810    0.0000 C   0  0  0  0  0  0  0  0  0  0  0  0
    0.8414    0.3422    0.0000 C   0  0  0  0  0  0  0  0  0  0  0  0
   -0.0238    0.6838    0.0000 C   0  0  0  0  0  0  0  0  0  0  0  0
   -0.1844    1.8272    0.0000 C   0  0  0  0  0  0  0  0  0  0  0  0
    0.6440    2.5534    0.0000 C   0  0  0  0  0  0  0  0  0  0  0  0
    0.6424    3.5708    0.0000 O   0  0  0  0  0  0  0  0  0  0  0  0
    1.6064    3.8484    0.0000 C   0  0  0  0  0  0  0  0  0  0  0  0
    2.2216    3.0058    0.0000 O   0  0  0  0  0  0  0  0  0  0  0  0
   -1.3162   -0.0258    0.0000 C   0  0  0  0  0  0  0  0  0  0  0  0
   -1.3166   -1.1604    0.0000 C   0  0  0  0  0  0  0  0  0  0  0  0
    0.0112   -1.4602    0.0000 N   0  0  0  0  0  0  0  0  0  0  0  0
    0.9682   -0.6140    0.0000 C   0  0  0  0  0  0  0  0  0  0  0  0
    0.3340   -0.7884    0.0000 C   0  0  0  0  0  0  0  0  0  0  0  0
   -0.5150    0.2392    0.0000 C   0  0  0  0  0  0  0  0  0  0  0  0
   -0.1252   -0.1440    0.0000 O   0  0  0  0  0  0  0  0  0  0  0  0
   -2.1744   -1.6738    0.0000 C   0  0  0  0  0  0  0  0  0  0  0  0
   -3.1028   -1.1260    0.0000 C   0  0  0  0  0  0  0  0  0  0  0  0
   -3.1290   -0.0712    0.0000 C   0  0  0  0  0  0  0  0  0  0  0  0
   -2.2076    0.4546    0.0000 C   0  0  0  0  0  0  0  0  0  0  0  0
   -3.9890   -1.6260    0.0000 O   0  0  0  0  0  0  0  0  0  0  0  0
   -4.0152   -2.6222    0.0000 C   0  0  0  0  0  0  0  0  0  0  0  0
  1  2  2  0
  2  3  1  0
  3  4  2  0
  4  5  1  0
  5  6  2  0
  6  7  1  0
  7  8  1  0
  8  9  1  0
  4 10  1  0
 10 11  1  0
 11 12  1  0
 12 13  1  0
 12 14  1  0
 14 15  1  0
 15 16  1  1
 11 17  1  1
 17 18  1  0
 18 19  1  0
 19 20  2  0
 18 21  1  1
 21 22  1  0
  6  1  1  0
 10 20  1  1
  9  1  1  0
 15 10  1  0
 13  3  1  0
M  END
>  <Name>  (1) 
Crinamine

>  <Formula>  (1) 
C17H19NO4

>  <Mw>  (1) 
301.1314081

>  <CAS RN>  (1) 
639-41-8

>  <InChIKey>  (1) 
YGPRSGKVLATIHT-NIUZHJOKNA-N

>  <InChICode>  (1) 
InChI=1S/C17H19NO4/c1-20-11-2-3-17-12-6-14-13(21-9-22-14)4-10(12)7-18(8-16(17)19)15(17)5-11/h2-4,6,11,15-16,19H,5,7-9H2,1H3/t11-,15-,16-,17-/m0/s1

>  <SMILES>  (1) 
c12cc3c(cc1OCO2)[C@]12[C@@H](N(C3)C[C@@H]2O)C[C@H](C=C1)OC

>  <C_ID>  (1) 
C00001569

>  <Contains_Nitrogen>  (1) 
True

>  <In_Species>  (1) 
Ammocharis coranica||Brunsvigia josephinae||Brunsvigia radulosa||Crinum asiaticum||Crinum bulbispermum||Crinum glaucum||Crinum jagus||Crinum macowanii||Narcissus bujei||Pancratium foetidum

>  <NMRSHIFTDB2_ASSIGNMENT>  (1) 
1, 147.9 \
2, 104.5 \
3, 127.1 \
4, 137.7 \
5, 108.1 \
6, 148.4 \
8, 101.5 \
10, 51.7 \
11, 67.7 \
13, 61.8 \
14, 63.9 \
15, 81.3 \
17, 30.2 \
18, 71.9 \
19, 123.7 \
20, 137.4 \
22, 56.0 \

>  <NMR_score>  (1) 
1.000

$$$$
C00001571
     RDKit          2D

 22 26  0  0  0  0  0  0  0  0999 V2000
    1.6154    2.2002    0.0000 C   0  0  0  0  0  0  0  0  0  0  0  0
    1.8008    1.0810    0.0000 C   0  0  0  0  0  0  0  0  0  0  0  0
    0.8414    0.3422    0.0000 C   0  0  0  0  0  0  0  0  0  0  0  0
   -0.0238    0.6838    0.0000 C   0  0  0  0  0  0  0  0  0  0  0  0
   -0.1844    1.8272    0.0000 C   0  0  0  0  0  0  0  0  0  0  0  0
    0.6440    2.5534    0.0000 C   0  0  0  0  0  0  0  0  0  0  0  0
    0.6424    3.5708    0.0000 O   0  0  0  0  0  0  0  0  0  0  0  0
    1.6064    3.8484    0.0000 C   0  0  0  0  0  0  0  0  0  0  0  0
    2.2216    3.0058    0.0000 O   0  0  0  0  0  0  0  0  0  0  0  0
   -1.3162   -0.0258    0.0000 C   0  0  0  0  0  0  0  0  0  0  0  0
   -1.3166   -1.1604    0.0000 C   0  0  0  0  0  0  0  0  0  0  0  0
    0.0112   -1.4602    0.0000 N   0  0  0  0  0  0  0  0  0  0  0  0
    0.9682   -0.6140    0.0000 C   0  0  0  0  0  0  0  0  0  0  0  0
    0.3340   -0.7884    0.0000 C   0  0  0  0  0  0  0  0  0  0  0  0
   -0.5150    0.2392    0.0000 C   0  0  0  0  0  0  0  0  0  0  0  0
   -0.1252   -0.1440    0.0000 O   0  0  0  0  0  0  0  0  0  0  0  0
   -2.1744   -1.6738    0.0000 C   0  0  0  0  0  0  0  0  0  0  0  0
   -3.1028   -1.1260    0.0000 C   0  0  0  0  0  0  0  0  0  0  0  0
   -3.1290   -0.0712    0.0000 C   0  0  0  0  0  0  0  0  0  0  0  0
   -2.2076    0.4546    0.0000 C   0  0  0  0  0  0  0  0  0  0  0  0
   -3.9890   -1.6260    0.0000 O   0  0  0  0  0  0  0  0  0  0  0  0
   -4.0152   -2.6222    0.0000 C   0  0  0  0  0  0  0  0  0  0  0  0
  1  2  2  0
  2  3  1  0
  3  4  2  0
  4  5  1  0
  5  6  2  0
  6  7  1  0
  7  8  1  0
  8  9  1  0
  4 10  1  0
 10 11  1  0
 11 12  1  0
 12 13  1  0
 12 14  1  0
 14 15  1  0
 15 16  1  6
 11 17  1  1
 17 18  1  0
 18 19  1  0
 19 20  2  0
 18 21  1  6
 21 22  1  0
  6  1  1  0
 10 20  1  1
  9  1  1  0
 15 10  1  0
 13  3  1  0
M  END
>  <Name>  (2) 
Haemanthamine

>  <Formula>  (2) 
C17H19NO4

>  <Mw>  (2) 
301.1314081

>  <CAS RN>  (2) 
466-75-1

>  <InChIKey>  (2) 
YGPRSGKVLATIHT-GZCMTMHCNA-N

>  <InChICode>  (2) 
InChI=1S/C17H19NO4/c1-20-11-2-3-17-12-6-14-13(21-9-22-14)4-10(12)7-18(8-16(17)19)15(17)5-11/h2-4,6,11,15-16,19H,5,7-9H2,1H3/t11-,15+,16-,17+/m1/s1

>  <SMILES>  (2) 
c12cc3c(cc1OCO2)[C@]12[C@@H](N(C3)C[C@H]2O)C[C@@H](C=C1)OC

>  <C_ID>  (2) 
C00001571

>  <Contains_Nitrogen>  (2) 
True

>  <In_Species>  (2) 
Crinum glaucum||Crinum jagus||Cyrtanthus elatus||Galanthus elwesii||Haemanthus puniceus x katherinae||Haemanthus spp.||Narcissus asturiensis||Narcissus bujei||Narcissus primigenius||Narcissus pseudo narcissus subsp.pseudo narcissus||Pancratium canariense||Pancratium sickenbergeri||Sprekelia formosissima||Zephyranthes citrina

>  <NMRSHIFTDB2_ASSIGNMENT>  (2) 
1, 147.9 \
2, 104.5 \
3, 127.1 \
4, 137.7 \
5, 108.1 \
6, 148.4 \
8, 101.5 \
10, 51.7 \
11, 67.7 \
13, 61.8 \
14, 63.9 \
15, 81.3 \
17, 30.4 \
18, 71.9 \
19, 124.3 \
20, 137.4 \
22, 56.0 \

>  <NMR_score>  (2) 
1.000

$$$$
C00024396
     RDKit          2D

 22 26  0  0  0  0  0  0  0  0999 V2000
    1.9162   -0.1934    0.0000 C   0  0  0  0  0  0  0  0  0  0  0  0
    1.9210    0.8066    0.0000 C   0  0  0  0  0  0  0  0  0  0  0  0
    1.0574    1.3106    0.0000 C   0  0  0  0  0  0  0  0  0  0  0  0
    0.1890    0.8148    0.0000 C   0  0  0  0  0  0  0  0  0  0  0  0
    0.1842   -0.1850    0.0000 C   0  0  0  0  0  0  0  0  0  0  0  0
    1.0478   -0.6892    0.0000 C   0  0  0  0  0  0  0  0  0  0  0  0
   -0.6842   -0.6810    0.0000 C   0  0  0  0  0  0  0  0  0  0  0  0
   -1.5478   -0.1768    0.0000 C   0  0  0  0  0  0  0  0  0  0  0  0
   -1.5430    0.8232    0.0000 N   0  0  0  0  0  0  0  0  0  0  0  0
   -0.6746    1.3190    0.0000 C   0  0  0  0  0  0  0  0  0  0  0  0
   -2.4926    1.1368    0.0000 C   0  0  0  0  0  0  0  0  0  0  0  0
   -3.0842    0.3306    0.0000 C   0  0  0  0  0  0  0  0  0  0  0  0
   -2.5004   -0.4812    0.0000 C   0  0  0  0  0  0  0  0  0  0  0  0
   -2.4210   -1.6726    0.0000 C   0  0  0  0  0  0  0  0  0  0  0  0
   -1.5574   -2.1766    0.0000 C   0  0  0  0  0  0  0  0  0  0  0  0
   -0.6890   -1.6808    0.0000 C   0  0  0  0  0  0  0  0  0  0  0  0
    0.1746   -2.1850    0.0000 O   0  0  0  0  0  0  0  0  0  0  0  0
   -1.5622   -3.1766    0.0000 O   0  0  0  0  0  0  0  0  0  0  0  0
   -2.4306   -3.6724    0.0000 C   0  0  0  0  0  0  0  0  0  0  0  0
    2.8736    1.1110    0.0000 O   0  0  0  0  0  0  0  0  0  0  0  0
    3.4574    0.2992    0.0000 C   0  0  0  0  0  0  0  0  0  0  0  0
    2.8658   -0.5070    0.0000 O   0  0  0  0  0  0  0  0  0  0  0  0
  1  2  1  0
  2  3  2  0
  3  4  1  0
  4  5  2  0
  5  6  1  0
  7  5  1  6
  7  8  1  0
  8  9  1  0
  9 10  1  0
  9 11  1  0
 11 12  1  0
 12 13  1  0
 13 14  2  0
 14 15  1  0
 15 16  1  0
 16 17  1  6
 15 18  1  1
 18 19  1  0
  2 20  1  0
 20 21  1  0
 21 22  1  0
  6  1  2  0
 16  7  1  0
 22  1  1  0
 10  4  1  0
  8 13  1  1
M  END
>  <Name>  (3) 
Hippamine||2-O-Methyllycorine|| O2-Methyllycorine

>  <Formula>  (3) 
C17H19NO4

>  <Mw>  (3) 
301.1314081

>  <CAS RN>  (3) 
6879-76-1

>  <InChIKey>  (3) 
GYLFSMMPXXYQAB-FDQDZQOGNA-N

>  <InChICode>  (3) 
InChI=1S/C17H19NO4/c1-20-14-4-9-2-3-18-7-10-5-12-13(22-8-21-12)6-11(10)15(16(9)18)17(14)19/h4-6,14-17,19H,2-3,7-8H2,1H3/t14-,15-,16+,17+/m0/s1

>  <SMILES>  (3) 
c12c(cc3c(c1)[C@H]1[C@@H]4N(C3)CCC4=C[C@@H]([C@H]1O)OC)OCO2

>  <C_ID>  (3) 
C00024396

>  <Contains_Nitrogen>  (3) 
True

>  <In_Species>  (3) 
Sternbergia lutea ker-Gawl

>  <NMRSHIFTDB2_ASSIGNMENT>  (3) 
1, 146.8 \
2, 147.4 \
3, 106.8 \
4, 129.1 \
5, 126.6 \
6, 109.9 \
7, 41.2 \
8, 60.6 \
10, 56.8 \
11, 53.4 \
12, 28.2 \
13, 143.6 \
14, 114.7 \
15, 80.8 \
16, 68.1 \
19, 55.6 \
21, 101.3 \

>  <NMR_score>  (3) 
1.000

$$$$
C00049909
     RDKit          2D

 22 26  0  0  0  0  0  0  0  0999 V2000
   -0.9620   -0.6238    0.0000 C   0  0  0  0  0  0  0  0  0  0  0  0
   -0.4600   -1.4886    0.0000 C   0  0  0  0  0  0  0  0  0  0  0  0
   -0.9580   -2.3558    0.0000 C   0  0  0  0  0  0  0  0  0  0  0  0
   -1.9580   -2.3582    0.0000 C   0  0  0  0  0  0  0  0  0  0  0  0
   -2.4600   -1.4934    0.0000 C   0  0  0  0  0  0  0  0  0  0  0  0
   -1.9620   -0.6262    0.0000 C   0  0  0  0  0  0  0  0  0  0  0  0
   -3.4600   -1.4958    0.0000 O   0  0  0  0  0  0  0  0  0  0  0  0
   -2.4558   -3.2254    0.0000 O   0  0  0  0  0  0  0  0  0  0  0  0
   -1.9538   -4.0902    0.0000 C   0  0  0  0  0  0  0  0  0  0  0  0
    0.5176   -1.2782    0.0000 C   0  0  0  0  0  0  0  0  0  0  0  0
    1.4110   -0.8256    0.0000 C   0  0  0  0  0  0  0  0  0  0  0  0
    1.4086    0.1744    0.0000 C   0  0  0  0  0  0  0  0  0  0  0  0
    0.5414    0.6724    0.0000 C   0  0  0  0  0  0  0  0  0  0  0  0
   -0.2946    0.1210    0.0000 N   0  0  0  0  0  0  0  0  0  0  0  0
    0.6198   -0.2836    0.0000 C   0  0  0  0  0  0  0  0  0  0  0  0
    2.2734    0.6766    0.0000 C   0  0  0  0  0  0  0  0  0  0  0  0
    3.1406    0.1786    0.0000 C   0  0  0  0  0  0  0  0  0  0  0  0
    3.1430   -0.8214    0.0000 C   0  0  0  0  0  0  0  0  0  0  0  0
    2.2782   -1.3234    0.0000 C   0  0  0  0  0  0  0  0  0  0  0  0
    4.0948   -1.1282    0.0000 O   0  0  0  0  0  0  0  0  0  0  0  0
    4.6806   -0.3178    0.0000 C   0  0  0  0  0  0  0  0  0  0  0  0
    4.0908    0.4898    0.0000 O   0  0  0  0  0  0  0  0  0  0  0  0
  1  2  1  0
  2  3  2  0
  3  4  1  0
  4  5  1  0
  5  6  1  0
  5  7  1  1
  4  8  1  6
  8  9  1  0
 10  2  1  1
 10 11  1  0
 11 12  2  0
 12 13  1  0
 13 14  1  0
 14 15  1  0
 12 16  1  0
 16 17  2  0
 17 18  1  0
 18 19  2  0
 18 20  1  0
 20 21  1  0
 21 22  1  0
 14  1  1  0
 22 17  1  0
  1  6  1  6
 15 10  1  0
 19 11  1  0
M  END
>  <Name>  (4) 
(-)-Montanine

>  <Formula>  (4) 
C17H19NO4

>  <Mw>  (4) 
301.1314081

>  <CAS RN>  (4) 
642-52-4

>  <InChIKey>  (4) 
MKYLOMHWHWEFCT-MLPSCTRZNA-N

>  <InChICode>  (4) 
InChI=1S/C17H19NO4/c1-20-15-4-11-12-7-18(13(11)5-14(15)19)6-9-2-16-17(3-10(9)12)22-8-21-16/h2-4,12-15,19H,5-8H2,1H3/t12-,13-,14-,15-/m0/s1

>  <SMILES>  (4) 
[C@H]12C(=C[C@@H]([C@H](C2)O)OC)[C@@H]2c3c(CN1C2)cc1c(c3)OCO1

>  <C_ID>  (4) 
C00049909

>  <Contains_Nitrogen>  (4) 
True

>  <In_Species>  (4) 
Hippeastrum vittatum

>  <NMRSHIFTDB2_ASSIGNMENT>  (4) 
1, 60.5 \
2, 153.6 \
3, 112.7 \
4, 79.5 \
5, 68.2 \
6, 32.7 \
9, 55.0 \
10, 45.5 \
11, 124.2 \
12, 132.1 \
13, 58.3 \
15, 56.9 \
16, 106.8 \
17, 147.2 \
18, 146.4 \
19, 106.3 \
21, 101.3 \

>  <NMR_score>  (4) 
1.000

$$$$
C00024361
     RDKit          2D

 22 25  0  0  0  0  0  0  0  0999 V2000
    0.1750   -1.8842    0.0000 C   0  0  0  0  0  0  0  0  0  0  0  0
   -0.6920   -2.3824    0.0000 C   0  0  0  0  0  0  0  0  0  0  0  0
   -1.5572   -1.8806    0.0000 C   0  0  0  0  0  0  0  0  0  0  0  0
   -1.5550   -0.8808    0.0000 C   0  0  0  0  0  0  0  0  0  0  0  0
   -0.6880   -0.3824    0.0000 C   0  0  0  0  0  0  0  0  0  0  0  0
    0.1770   -0.8842    0.0000 C   0  0  0  0  0  0  0  0  0  0  0  0
   -0.6860    0.6176    0.0000 C   0  0  0  0  0  0  0  0  0  0  0  0
   -1.5510    1.1192    0.0000 C   0  0  0  0  0  0  0  0  0  0  0  0
   -2.4180    0.6210    0.0000 O   0  0  0  0  0  0  0  0  0  0  0  0
   -2.4200   -0.3790    0.0000 C   0  0  0  0  0  0  0  0  0  0  0  0
   -3.2872   -0.8772    0.0000 O   0  0  0  0  0  0  0  0  0  0  0  0
   -1.5490    2.1192    0.0000 C   0  0  0  0  0  0  0  0  0  0  0  0
   -0.6820    2.6174    0.0000 C   0  0  0  0  0  0  0  0  0  0  0  0
    0.1830    2.1158    0.0000 C   0  0  0  0  0  0  0  0  0  0  0  0
    0.1810    1.1158    0.0000 C   0  0  0  0  0  0  0  0  0  0  0  0
    1.1316    0.8048    0.0000 N   0  0  0  0  0  0  0  0  0  0  0  0
    1.7208    1.6126    0.0000 C   0  0  0  0  0  0  0  0  0  0  0  0
    1.1348    2.4228    0.0000 C   0  0  0  0  0  0  0  0  0  0  0  0
    1.4386   -0.1466    0.0000 C   0  0  0  0  0  0  0  0  0  0  0  0
   -0.6942   -3.3824    0.0000 O   0  0  0  0  0  0  0  0  0  0  0  0
    1.0400   -2.3858    0.0000 O   0  0  0  0  0  0  0  0  0  0  0  0
    1.9070   -1.8876    0.0000 C   0  0  0  0  0  0  0  0  0  0  0  0
  1  2  2  0
  2  3  1  0
  3  4  2  0
  4  5  1  0
  5  6  2  0
  7  5  1  6
  7  8  1  0
  8  9  1  0
  9 10  1  0
 10 11  2  0
  8 12  1  6
 12 13  1  0
 13 14  2  0
 14 15  1  0
 15 16  1  1
 16 17  1  0
 17 18  1  0
 16 19  1  0
  2 20  1  0
  1 21  1  0
 21 22  1  0
  6  1  1  0
 15  7  1  0
 10  4  1  0
 18 14  1  0
M  END
>  <Name>  (5) 
(+)-9-O-Demethylhomolycorine||(+)-8-O-Demethylhomolycorine||(+)-O-Demethylhomolycorine

>  <Formula>  (5) 
C17H19NO4

>  <Mw>  (5) 
301.1314081

>  <CAS RN>  (5) 
6879-81-8

>  <InChIKey>  (5) 
VLDOBKJPRUQEEC-HLRBPWBTNA-N

>  <InChICode>  (5) 
InChI=1S/C17H19NO4/c1-18-6-5-9-3-4-13-15(16(9)18)10-8-14(21-2)12(19)7-11(10)17(20)22-13/h3,7-8,13,15-16,19H,4-6H2,1-2H3/t13-,15-,16-/m1/s1

>  <SMILES>  (5) 
c1(c(cc2c(c1)[C@@H]1[C@H](OC2=O)CC=C2[C@H]1N(CC2)C)O)OC

>  <C_ID>  (5) 
C00024361

>  <Contains_Nitrogen>  (5) 
True

>  <In_Species>  (5) 
Galanthus caucasicus||Galanthus elewesii||Lycoris radiata Herb.||Narcissus bujei||Narcissus primigenius||Narcissus tazetta L.

>  <NMRSHIFTDB2_ASSIGNMENT>  (5) 
1, 145.7 \
2, 145.9 \
3, 112.3 \
4, 128.0 \
5, 137.8 \
6, 109.9 \
7, 43.8 \
8, 78.9 \
10, 163.9 \
12, 26.3 \
13, 114.9 \
14, 139.6 \
15, 66.4 \
17, 56.7 \
18, 27.9 \
19, 43.8 \
22, 56.1 \

>  <NMR_score>  (5) 
0.941

$$$$
C00024429
     RDKit          2D

 22 26  0  0  0  0  0  0  0  0999 V2000
    0.4490    1.9140    0.0000 C   0  0  0  0  0  0  0  0  0  0  0  0
    1.4240    1.4882    0.0000 C   0  0  0  0  0  0  0  0  0  0  0  0
    1.4780    0.3210    0.0000 C   0  0  0  0  0  0  0  0  0  0  0  0
    0.4004   -0.3894    0.0000 C   0  0  0  0  0  0  0  0  0  0  0  0
   -0.3912    0.0354    0.0000 C   0  0  0  0  0  0  0  0  0  0  0  0
   -0.4974    1.2556    0.0000 C   0  0  0  0  0  0  0  0  0  0  0  0
   -1.6364   -0.5574    0.0000 C   0  0  0  0  0  0  0  0  0  0  0  0
   -1.6336   -1.7400    0.0000 C   0  0  0  0  0  0  0  0  0  0  0  0
   -0.5120   -2.0382    0.0000 N   0  0  0  0  0  0  0  0  0  0  0  0
    0.4730   -1.2564    0.0000 C   0  0  0  0  0  0  0  0  0  0  0  0
   -0.1096   -1.3206    0.0000 C   0  0  0  0  0  0  0  0  0  0  0  0
   -0.8700   -0.3240    0.0000 C   0  0  0  0  0  0  0  0  0  0  0  0
   -2.4842   -2.1686    0.0000 C   0  0  0  0  0  0  0  0  0  0  0  0
   -3.4234   -1.6088    0.0000 C   0  0  0  0  0  0  0  0  0  0  0  0
   -3.3754   -0.5242    0.0000 C   0  0  0  0  0  0  0  0  0  0  0  0
   -2.4874   -0.0082    0.0000 C   0  0  0  0  0  0  0  0  0  0  0  0
   -4.2944   -2.0788    0.0000 O   0  0  0  0  0  0  0  0  0  0  0  0
    2.3790   -0.1332    0.0000 O   0  0  0  0  0  0  0  0  0  0  0  0
    3.2142    0.4172    0.0000 C   0  0  0  0  0  0  0  0  0  0  0  0
    2.0654    2.2046    0.0000 O   0  0  0  0  0  0  0  0  0  0  0  0
    1.5558    3.1372    0.0000 C   0  0  0  0  0  0  0  0  0  0  0  0
    0.5706    2.9240    0.0000 O   0  0  0  0  0  0  0  0  0  0  0  0
  1  2  1  0
  2  3  2  0
  3  4  1  0
  4  5  2  0
  5  6  1  0
  5  7  1  0
  7  8  1  0
  8  9  1  0
  9 10  1  0
  9 11  1  0
 11 12  1  0
  8 13  1  6
 13 14  1  0
 14 15  1  0
 15 16  2  0
 14 17  1  1
  3 18  1  0
 18 19  1  0
  2 20  1  0
 20 21  1  0
 21 22  1  0
  6  1  2  0
  7 16  1  6
 22  1  1  0
 10  4  1  0
 12  7  1  0
M  END
>  <Name>  (6) 
Powelline||Powellin

>  <Formula>  (6) 
C17H19NO4

>  <Mw>  (6) 
301.1314081

>  <CAS RN>  (6) 
7363-25-9

>  <InChIKey>  (6) 
VXTCKUJRGBGTEH-GMHHYAGVNA-N

>  <InChICode>  (6) 
InChI=1S/C17H19NO4/c1-20-15-11-8-18-5-4-17(3-2-10(19)6-14(17)18)12(11)7-13-16(15)22-9-21-13/h2-3,7,10,14,19H,4-6,8-9H2,1H3/t10-,14+,17+/m0/s1

>  <SMILES>  (6) 
c12c(c(c3c(c1)[C@@]14[C@H](N(C3)CC4)C[C@H](C=C1)O)OC)OCO2

>  <C_ID>  (6) 
C00024429

>  <Contains_Nitrogen>  (6) 
True

>  <In_Species>  (6) 
Ammocharis tinneana

>  <NMRSHIFTDB2_ASSIGNMENT>  (6) 
1, 148.0 \
2, 137.4 \
3, 140.4 \
4, 118.3 \
5, 141.6 \
6, 105.5 \
7, 44.0 \
8, 62.9 \
10, 55.8 \
11, 53.4 \
12, 44.0 \
13, 32.5 \
14, 64.0 \
15, 127.5 \
16, 132.1 \
19, 61.0 \
21, 100.2 \

>  <NMR_score>  (6) 
0.941

$$$$
C00027794
     RDKit          2D

 22 25  0  0  0  0  0  0  0  0999 V2000
    0.5144   -1.7936    0.0000 C   0  0  0  0  0  0  0  0  0  0  0  0
   -0.3526   -2.2918    0.0000 C   0  0  0  0  0  0  0  0  0  0  0  0
   -1.2176   -1.7902    0.0000 C   0  0  0  0  0  0  0  0  0  0  0  0
   -1.2156   -0.7902    0.0000 C   0  0  0  0  0  0  0  0  0  0  0  0
   -0.3486   -0.2918    0.0000 C   0  0  0  0  0  0  0  0  0  0  0  0
    0.5164   -0.7936    0.0000 C   0  0  0  0  0  0  0  0  0  0  0  0
   -0.3466    0.7082    0.0000 C   0  0  0  0  0  0  0  0  0  0  0  0
   -1.2116    1.2098    0.0000 C   0  0  0  0  0  0  0  0  0  0  0  0
   -2.0786    0.7116    0.0000 O   0  0  0  0  0  0  0  0  0  0  0  0
   -2.0806   -0.2884    0.0000 C   0  0  0  0  0  0  0  0  0  0  0  0
   -2.9476   -0.7866    0.0000 O   0  0  0  0  0  0  0  0  0  0  0  0
   -1.2096    2.2098    0.0000 C   0  0  0  0  0  0  0  0  0  0  0  0
   -0.3426    2.7080    0.0000 C   0  0  0  0  0  0  0  0  0  0  0  0
    0.5224    2.2064    0.0000 C   0  0  0  0  0  0  0  0  0  0  0  0
    0.5204    1.2064    0.0000 C   0  0  0  0  0  0  0  0  0  0  0  0
    1.4710    0.8954    0.0000 N   0  0  0  0  0  0  0  0  0  0  0  0
    2.0602    1.7032    0.0000 C   0  0  0  0  0  0  0  0  0  0  0  0
    1.4742    2.5134    0.0000 C   0  0  0  0  0  0  0  0  0  0  0  0
    1.7782   -0.0560    0.0000 C   0  0  0  0  0  0  0  0  0  0  0  0
   -0.3546   -3.2918    0.0000 O   0  0  0  0  0  0  0  0  0  0  0  0
   -1.2216   -3.7900    0.0000 C   0  0  0  0  0  0  0  0  0  0  0  0
    1.3794   -2.2952    0.0000 O   0  0  0  0  0  0  0  0  0  0  0  0
  1  2  2  0
  2  3  1  0
  3  4  2  0
  4  5  1  0
  5  6  2  0
  7  5  1  6
  7  8  1  0
  8  9  1  0
  9 10  1  0
 10 11  2  0
  8 12  1  6
 12 13  1  0
 13 14  2  0
 14 15  1  0
 15 16  1  1
 16 17  1  0
 17 18  1  0
 16 19  1  0
  2 20  1  0
 20 21  1  0
  1 22  1  0
  6  1  1  0
 15  7  1  0
 10  4  1  0
 18 14  1  0
M  END
>  <Name>  (7) 
9-O-Demethylhomolycorine||O10-Demethylhomolycorine

>  <Formula>  (7) 
C17H19NO4

>  <Mw>  (7) 
301.1314081

>  <CAS RN>  (7) 
109771-07-5

>  <InChIKey>  (7) 
OWLDOXLNJGFHQR-HLRBPWBTNA-N

>  <InChICode>  (7) 
InChI=1S/C17H19NO4/c1-18-6-5-9-3-4-13-15(16(9)18)10-7-12(19)14(21-2)8-11(10)17(20)22-13/h3,7-8,13,15-16,19H,4-6H2,1-2H3/t13-,15-,16-/m1/s1

>  <SMILES>  (7) 
c1(c(cc2c(c1)[C@@H]1[C@H](OC2=O)CC=C2[C@H]1N(CC2)C)OC)O

>  <C_ID>  (7) 
C00027794

>  <Contains_Nitrogen>  (7) 
True

>  <In_Species>  (7) 
Leucojum vernum||Narcissus angustifolius subsp. transcanpathicus

>  <NMRSHIFTDB2_ASSIGNMENT>  (7) 
1, 150.9 \
2, 147.7 \
3, 109.9 \
4, 128.0 \
5, 137.8 \
6, 114.7 \
7, 43.8 \
8, 78.9 \
10, 163.9 \
12, 26.3 \
13, 114.9 \
14, 139.6 \
15, 66.4 \
17, 56.7 \
18, 27.9 \
19, 43.8 \
21, 56.1 \

>  <NMR_score>  (7) 
0.941

$$$$
C00028757
     RDKit          2D

 22 26  0  0  0  0  0  0  0  0999 V2000
   -0.7354   -0.5372    0.0000 C   0  0  0  0  0  0  0  0  0  0  0  0
   -0.7402   -1.5372    0.0000 C   0  0  0  0  0  0  0  0  0  0  0  0
   -1.6086   -2.0330    0.0000 C   0  0  0  0  0  0  0  0  0  0  0  0
   -2.4722   -1.5288    0.0000 O   0  0  0  0  0  0  0  0  0  0  0  0
   -2.4674   -0.5290    0.0000 C   0  0  0  0  0  0  0  0  0  0  0  0
   -1.5990   -0.0332    0.0000 C   0  0  0  0  0  0  0  0  0  0  0  0
   -1.5942    0.9668    0.0000 C   0  0  0  0  0  0  0  0  0  0  0  0
   -2.4578    1.4710    0.0000 C   0  0  0  0  0  0  0  0  0  0  0  0
   -3.3262    0.9752    0.0000 C   0  0  0  0  0  0  0  0  0  0  0  0
   -3.3310   -0.0248    0.0000 C   0  0  0  0  0  0  0  0  0  0  0  0
   -2.2452    2.4480    0.0000 C   0  0  0  0  0  0  0  0  0  0  0  0
   -1.2502    2.5478    0.0000 C   0  0  0  0  0  0  0  0  0  0  0  0
   -0.8478    1.6324    0.0000 N   0  0  0  0  0  0  0  0  0  0  0  0
    0.1292    1.4198    0.0000 C   0  0  0  0  0  0  0  0  0  0  0  0
   -1.6134   -3.0330    0.0000 O   0  0  0  0  0  0  0  0  0  0  0  0
    0.1234   -2.0414    0.0000 C   0  0  0  0  0  0  0  0  0  0  0  0
    0.9918   -1.5456    0.0000 C   0  0  0  0  0  0  0  0  0  0  0  0
    0.9966   -0.5456    0.0000 C   0  0  0  0  0  0  0  0  0  0  0  0
    0.1330   -0.0414    0.0000 C   0  0  0  0  0  0  0  0  0  0  0  0
    1.9492   -0.2412    0.0000 O   0  0  0  0  0  0  0  0  0  0  0  0
    2.5330   -1.0530    0.0000 C   0  0  0  0  0  0  0  0  0  0  0  0
    1.9416   -1.8592    0.0000 O   0  0  0  0  0  0  0  0  0  0  0  0
  1  2  2  0
  2  3  1  0
  3  4  1  0
  4  5  1  0
  5  6  1  0
  6  7  1  0
  7  8  1  0
  8  9  2  0
  9 10  1  0
  8 11  1  0
 11 12  1  0
 12 13  1  0
 13 14  1  0
  3 15  1  6
  2 16  1  0
 16 17  2  0
 17 18  1  0
 18 19  2  0
 18 20  1  0
 20 21  1  0
 21 22  1  0
  6  1  1  1
  7 13  1  6
 22 17  1  0
 19  1  1  0
  5 10  1  1
M  END
>  <Name>  (8) 
Oduline||Odulin

>  <Formula>  (8) 
C17H19NO4

>  <Mw>  (8) 
301.1314081

>  <CAS RN>  (8) 
477-18-9

>  <InChIKey>  (8) 
FUVJDWFLSZRIQX-UHFFFAOYNA-N

>  <InChICode>  (8) 
InChI=1S/C17H19NO4/c1-18-5-4-9-2-3-12-15(16(9)18)10-6-13-14(21-8-20-13)7-11(10)17(19)22-12/h2,6-7,12,15-17,19H,3-5,8H2,1H3/t12-,15-,16-,17+/m0/s1

>  <SMILES>  (8) 
c12c([C@@H](O[C@@H]3[C@H]1[C@@H]1C(=CC3)CCN1C)O)cc1c(c2)OCO1

>  <C_ID>  (8) 
C00028757

>  <Contains_Nitrogen>  (8) 
True

>  <In_Species>  (8) 
Narcissus pseudo narcissus subsp.pseudo narcissus

>  <NMRSHIFTDB2_ASSIGNMENT>  (8) 
1, 126.5 \
2, 129.5 \
3, 90.7 \
5, 67.3 \
6, 43.8 \
7, 66.4 \
8, 139.6 \
9, 114.9 \
10, 31.7 \
11, 27.9 \
12, 56.7 \
14, 43.8 \
16, 110.6 \
17, 147.2 \
18, 146.8 \
19, 109.9 \
21, 101.3 \

>  <NMR_score>  (8) 
0.941

$$$$
C00028682
     RDKit          2D

 22 25  0  0  0  0  0  0  0  0999 V2000
    0.9978   -0.0676    0.0000 C   0  0  0  0  0  0  0  0  0  0  0  0
    1.3704    0.8604    0.0000 C   0  0  0  0  0  0  0  0  0  0  0  0
    0.6028    1.5016    0.0000 O   0  0  0  0  0  0  0  0  0  0  0  0
   -0.2440    0.9698    0.0000 C   0  0  0  0  0  0  0  0  0  0  0  0
    0.0000    0.0000    0.0000 C   0  0  0  0  0  0  0  0  0  0  0  0
   -0.7180   -0.6962    0.0000 C   0  0  0  0  0  0  0  0  0  0  0  0
   -1.6798   -0.4226    0.0000 C   0  0  0  0  0  0  0  0  0  0  0  0
   -1.9238    0.5472    0.0000 C   0  0  0  0  0  0  0  0  0  0  0  0
   -1.2060    1.2434    0.0000 C   0  0  0  0  0  0  0  0  0  0  0  0
   -1.4500    2.2134    0.0000 O   0  0  0  0  0  0  0  0  0  0  0  0
   -2.4118    2.4870    0.0000 C   0  0  0  0  0  0  0  0  0  0  0  0
   -0.7794   -1.6944    0.0000 C   0  0  0  0  0  0  0  0  0  0  0  0
    0.0112   -2.3068    0.0000 N   0  0  0  0  0  0  0  0  0  0  0  0
    0.9624   -1.9978    0.0000 C   0  0  0  0  0  0  0  0  0  0  0  0
    1.2418   -1.0374    0.0000 C   0  0  0  0  0  0  0  0  0  0  0  0
   -0.1604   -3.2920    0.0000 C   0  0  0  0  0  0  0  0  0  0  0  0
    0.6070   -3.9332    0.0000 O   0  0  0  0  0  0  0  0  0  0  0  0
    2.3604    1.0018    0.0000 C   0  0  0  0  0  0  0  0  0  0  0  0
    2.9778    0.2150    0.0000 C   0  0  0  0  0  0  0  0  0  0  0  0
    2.6052   -0.7130    0.0000 C   0  0  0  0  0  0  0  0  0  0  0  0
    1.6152   -0.8544    0.0000 C   0  0  0  0  0  0  0  0  0  0  0  0
    3.9678    0.3562    0.0000 O   0  0  0  0  0  0  0  0  0  0  0  0
  1  2  1  0
  2  3  1  0
  3  4  1  0
  4  5  2  0
  5  6  1  0
  6  7  2  0
  7  8  1  0
  8  9  2  0
  9 10  1  0
 10 11  1  0
  6 12  1  0
 12 13  1  0
 13 14  1  0
 14 15  1  0
 13 16  1  0
 16 17  2  0
  2 18  1  1
 18 19  1  0
 19 20  1  0
 20 21  2  0
 19 22  1  1
  5  1  1  0
  1 21  1  1
 15  1  1  0
  9  4  1  0
M  END
>  <Name>  (9) 
N-Formylgalanthamine

>  <Formula>  (9) 
C17H19NO4

>  <Mw>  (9) 
301.1314081

>  <CAS RN>  (9) 
109606-37-3

>  <InChIKey>  (9) 
QXJGZXXZZGCXBZ-KJOHYSOBNA-N

>  <InChICode>  (9) 
InChI=1S/C17H19NO4/c1-21-13-3-2-11-9-18(10-19)7-6-17-5-4-12(20)8-14(17)22-16(13)15(11)17/h2-5,10,12,14,20H,6-9H2,1H3/t12-,14-,17-/m0/s1

>  <SMILES>  (9) 
[C@@]123[C@@H](Oc4c1c(ccc4OC)CN(CC3)C=O)C[C@H](C=C2)O

>  <C_ID>  (9) 
C00028682

>  <Contains_Nitrogen>  (9) 
True

>  <In_Species>  (9) 
Galanthus elwesii

>  <NMRSHIFTDB2_ASSIGNMENT>  (9) 
1, 48.7 \
2, 86.2 \
4, 146.9 \
5, 132.0 \
6, 134.8 \
7, 124.6 \
8, 111.3 \
9, 144.0 \
11, 55.9 \
12, 54.9 \
14, 50.3 \
15, 36.8 \
16, 161.6 \
18, 33.7 \
19, 64.2 \
20, 127.5 \
21, 131.6 \

>  <NMR_score>  (9) 
0.882

$$$$
C00027620
     RDKit          2D

 22 26  0  0  0  0  0  0  0  0999 V2000
    3.4706    0.3546    0.0000 C   0  0  0  0  0  0  0  0  0  0  0  0
    2.7372    1.2534    0.0000 C   0  0  0  0  0  0  0  0  0  0  0  0
    1.7144    1.1600    0.0000 C   0  0  0  0  0  0  0  0  0  0  0  0
    1.2892    0.2716    0.0000 C   0  0  0  0  0  0  0  0  0  0  0  0
    1.9808   -0.8728    0.0000 C   0  0  0  0  0  0  0  0  0  0  0  0
    2.9862   -0.7504    0.0000 C   0  0  0  0  0  0  0  0  0  0  0  0
    0.8070   -2.0338    0.0000 C   0  0  0  0  0  0  0  0  0  0  0  0
    0.2350   -1.5560    0.0000 O   0  0  0  0  0  0  0  0  0  0  0  0
    0.8574   -0.6308    0.0000 C   0  0  0  0  0  0  0  0  0  0  0  0
    0.8576    0.1618    0.0000 C   0  0  0  0  0  0  0  0  0  0  0  0
   -0.0754    0.9882    0.0000 C   0  0  0  0  0  0  0  0  0  0  0  0
   -1.0172    0.6470    0.0000 C   0  0  0  0  0  0  0  0  0  0  0  0
   -1.2084   -0.3992    0.0000 C   0  0  0  0  0  0  0  0  0  0  0  0
   -0.3062   -1.0976    0.0000 C   0  0  0  0  0  0  0  0  0  0  0  0
   -2.1322   -0.7552    0.0000 O   0  0  0  0  0  0  0  0  0  0  0  0
    0.0640    0.4320    0.0000 C   0  0  0  0  0  0  0  0  0  0  0  0
   -0.2898   -0.0184    0.0000 C   0  0  0  0  0  0  0  0  0  0  0  0
    0.3250   -0.8210    0.0000 N   0  0  0  0  0  0  0  0  0  0  0  0
    0.2836   -0.2568    0.0000 C   0  0  0  0  0  0  0  0  0  0  0  0
    3.2982    2.0886    0.0000 O   0  0  0  0  0  0  0  0  0  0  0  0
    4.3020    1.8162    0.0000 C   0  0  0  0  0  0  0  0  0  0  0  0
    4.3430    0.7010    0.0000 O   0  0  0  0  0  0  0  0  0  0  0  0
  1  2  1  0
  2  3  2  0
  3  4  1  0
  4  5  2  0
  5  6  1  0
  5  7  1  0
  7  8  1  0
  8  9  1  0
  9 10  1  0
 10 11  1  6
 11 12  2  0
 12 13  1  0
 13 14  1  0
 13 15  1  6
 10 16  1  0
 16 17  1  0
 17 18  1  0
 18 19  1  0
  2 20  1  0
 20 21  1  0
 21 22  1  0
  6  1  2  0
  9 14  1  6
 22  1  1  0
 10  4  1  0
 18  9  1  0
M  END
>  <Name>  (10) 
(+)-3,4-Dihydro-3-hydroxygraciline

>  <Formula>  (10) 
C17H19NO4

>  <Mw>  (10) 
301.1314081

>  <CAS RN>  (10) 
216444-08-5

>  <InChIKey>  (10) 
RVGHIJPVZJBFEH-BILGIZMGNA-N

>  <InChICode>  (10) 
InChI=1S/C17H19NO4/c1-18-5-4-16-3-2-12(19)8-17(16,18)22-9-11-6-14-15(7-13(11)16)21-10-20-14/h2-3,6-7,12,19H,4-5,8-10H2,1H3/t12-,16+,17-/m1/s1

>  <SMILES>  (10) 
c12c(cc3c(c1)CO[C@@]14[C@@]3(C=C[C@H](C1)O)CCN4C)OCO2

>  <C_ID>  (10) 
C00027620

>  <Contains_Nitrogen>  (10) 
True

>  <In_Species>  (10) 
Galanthus plicatus

>  <NMRSHIFTDB2_ASSIGNMENT>  (10) 
1, 146.3 \
2, 147.1 \
3, 105.5 \
4, 141.6 \
5, 127.8 \
6, 103.7 \
7, 65.1 \
9, 89.7 \
10, 48.4 \
11, 144.0 \
12, 127.5 \
13, 64.9 \
14, 38.6 \
16, 38.6 \
17, 49.9 \
19, 36.0 \
21, 101.6 \

>  <NMR_score>  (10) 
0.824

$$$$
C00027621
     RDKit          2D

 22 26  0  0  0  0  0  0  0  0999 V2000
    3.4706    0.3546    0.0000 C   0  0  0  0  0  0  0  0  0  0  0  0
    2.7372    1.2534    0.0000 C   0  0  0  0  0  0  0  0  0  0  0  0
    1.7144    1.1600    0.0000 C   0  0  0  0  0  0  0  0  0  0  0  0
    1.2892    0.2716    0.0000 C   0  0  0  0  0  0  0  0  0  0  0  0
    1.9808   -0.8728    0.0000 C   0  0  0  0  0  0  0  0  0  0  0  0
    2.9862   -0.7504    0.0000 C   0  0  0  0  0  0  0  0  0  0  0  0
    0.8070   -2.0338    0.0000 C   0  0  0  0  0  0  0  0  0  0  0  0
    0.2350   -1.5560    0.0000 O   0  0  0  0  0  0  0  0  0  0  0  0
    0.8574   -0.6308    0.0000 C   0  0  0  0  0  0  0  0  0  0  0  0
    0.8576    0.1618    0.0000 C   0  0  0  0  0  0  0  0  0  0  0  0
   -0.0754    0.9882    0.0000 C   0  0  0  0  0  0  0  0  0  0  0  0
   -1.0172    0.6470    0.0000 C   0  0  0  0  0  0  0  0  0  0  0  0
   -1.2084   -0.3992    0.0000 C   0  0  0  0  0  0  0  0  0  0  0  0
   -0.3062   -1.0976    0.0000 C   0  0  0  0  0  0  0  0  0  0  0  0
   -2.1322   -0.7552    0.0000 O   0  0  0  0  0  0  0  0  0  0  0  0
    0.0640    0.4320    0.0000 C   0  0  0  0  0  0  0  0  0  0  0  0
   -0.2898   -0.0184    0.0000 C   0  0  0  0  0  0  0  0  0  0  0  0
    0.3250   -0.8210    0.0000 N   0  0  0  0  0  0  0  0  0  0  0  0
    0.2836   -0.2568    0.0000 C   0  0  0  0  0  0  0  0  0  0  0  0
    3.2982    2.0886    0.0000 O   0  0  0  0  0  0  0  0  0  0  0  0
    4.3020    1.8162    0.0000 C   0  0  0  0  0  0  0  0  0  0  0  0
    4.3430    0.7010    0.0000 O   0  0  0  0  0  0  0  0  0  0  0  0
  1  2  1  0
  2  3  2  0
  3  4  1  0
  4  5  2  0
  5  6  1  0
  5  7  1  0
  7  8  1  0
  8  9  1  0
  9 10  1  0
 10 11  1  6
 11 12  2  0
 12 13  1  0
 13 14  1  0
 13 15  1  1
 10 16  1  0
 16 17  1  0
 17 18  1  0
 18 19  1  0
  2 20  1  0
 20 21  1  0
 21 22  1  0
  6  1  2  0
  9 14  1  6
 22  1  1  0
 10  4  1  0
 18  9  1  0
M  END
>  <Name>  (11) 
(+)-3-epi-3,4-Dihydro-3-hydroxygraciline

>  <Formula>  (11) 
C17H19NO4

>  <Mw>  (11) 
301.1314081

>  <CAS RN>  (11) 
342793-88-8

>  <InChIKey>  (11) 
RVGHIJPVZJBFEH-DWWUXHIZNA-N

>  <InChICode>  (11) 
InChI=1S/C17H19NO4/c1-18-5-4-16-3-2-12(19)8-17(16,18)22-9-11-6-14-15(7-13(11)16)21-10-20-14/h2-3,6-7,12,19H,4-5,8-10H2,1H3/t12-,16-,17+/m0/s1

>  <SMILES>  (11) 
c12c(cc3c(c1)CO[C@@]14[C@@]3(C=C[C@@H](C1)O)CCN4C)OCO2

>  <C_ID>  (11) 
C00027621

>  <Contains_Nitrogen>  (11) 
True

>  <In_Species>  (11) 
Galanthus gracilis

>  <NMRSHIFTDB2_ASSIGNMENT>  (11) 
1, 146.3 \
2, 147.1 \
3, 105.5 \
4, 141.6 \
5, 127.8 \
6, 103.7 \
7, 65.1 \
9, 89.7 \
10, 48.4 \
11, 144.0 \
12, 127.5 \
13, 65.3 \
14, 38.6 \
16, 38.6 \
17, 49.9 \
19, 36.0 \
21, 101.6 \

>  <NMR_score>  (11) 
0.824

$$$$
